@<TRIPOS>MOLECULE
AlkEthOH_c42
20   19    1
SMALL
USER_CHARGES


@<TRIPOS>ATOM
      1 C1         -1.0041    2.4813    0.8223 C.3       1 MOL        -0.1225 
      2 C2         -0.6161   -2.1524   -1.3272 C.3       1 MOL        -0.1225 
      3 C3         -0.0781    1.3017    0.4876 C.3       1 MOL         0.1284 
      4 C4          0.0470   -1.1409   -0.3814 C.3       1 MOL         0.1284 
      5 C5         -0.8368    0.1048   -0.1318 C.3       1 MOL         0.1575 
      6 O1          0.8863    1.7749   -0.4313 O.3       1 MOL        -0.6177 
      7 O2          0.2981   -1.7928    0.8597 O.3       1 MOL        -0.6177 
      8 O3         -1.8039   -0.3515    0.7822 O.3       1 MOL        -0.6099 
      9 H1         -1.5324    2.8339   -0.0642 H         1 MOL         0.0493 
     10 H2         -0.4491    3.3211    1.2403 H         1 MOL         0.0493 
     11 H3         -1.7563    2.1929    1.5573 H         1 MOL         0.0493 
     12 H4         -1.5636   -2.5151   -0.9267 H         1 MOL         0.0493 
     13 H5          0.0255   -3.0162   -1.5022 H         1 MOL         0.0493 
     14 H6         -0.8237   -1.6973   -2.2961 H         1 MOL         0.0493 
     15 H7          0.4394    0.9810    1.3934 H         1 MOL         0.0417 
     16 H8          0.9983   -0.8341   -0.8192 H         1 MOL         0.0417 
     17 H9         -1.3257    0.4249   -1.0540 H         1 MOL         0.0577 
     18 H10         1.3948    2.4516   -0.0106 H         1 MOL         0.4064 
     19 H11         0.9940   -2.4215    0.7290 H         1 MOL         0.4064 
     20 H12        -1.3201   -1.0205    1.2623 H         1 MOL         0.4262 
@<TRIPOS>BOND
     1    1    3 1    
     2    1    9 1    
     3    1   10 1    
     4    1   11 1    
     5    2    4 1    
     6    2   12 1    
     7    2   13 1    
     8    2   14 1    
     9    3    5 1    
    10    3    6 1    
    11    3   15 1    
    12    4    5 1    
    13    4    7 1    
    14    4   16 1    
    15    5    8 1    
    16    5   17 1    
    17    6   18 1    
    18    7   19 1    
    19    8   20 1    
@<TRIPOS>SUBSTRUCTURE
     1 MOL         1 GROUP             0       ****    0 ROOT    
