@<TRIPOS>MOLECULE
AlkEthOH_c80
23   22    1
SMALL
USER_CHARGES


@<TRIPOS>ATOM
      1 C1         -0.8263   -0.7261    1.8545 C.3       1 MOL        -0.1255 
      2 C2          1.8244   -0.2781    0.2348 C.3       1 MOL        -0.1163 
      3 C3         -0.9468    1.8278   -3.2090 C.3       1 MOL         0.1167 
      4 C4          0.3999    0.7116   -1.6231 C.3       1 MOL         0.1294 
      5 C5         -0.7476   -0.4943    0.3359 C.3       1 MOL         0.1142 
      6 C6          0.4687    0.3561   -0.1257 C.3       1 MOL         0.1651 
      7 O1         -0.7182   -1.7615   -0.2908 O.3       1 MOL        -0.6174 
      8 O2          0.4141    1.6163    0.4980 O.3       1 MOL        -0.6052 
      9 O3         -0.7600    1.5099   -1.8402 O.3       1 MOL        -0.4245 
     10 H1          0.0168   -1.3112    2.2213 H         1 MOL         0.0462 
     11 H2         -1.7374   -1.2602    2.1242 H         1 MOL         0.0462 
     12 H3         -0.8343    0.2190    2.3982 H         1 MOL         0.0462 
     13 H4          1.9403   -0.4016    1.3109 H         1 MOL         0.0509 
     14 H5          2.6545    0.3403   -0.1074 H         1 MOL         0.0509 
     15 H6          1.9351   -1.2598   -0.2260 H         1 MOL         0.0509 
     16 H7         -1.8360    2.4478   -3.3242 H         1 MOL         0.0344 
     17 H8         -1.0870    0.9264   -3.8074 H         1 MOL         0.0344 
     18 H9         -0.0962    2.3831   -3.6067 H         1 MOL         0.0344 
     19 H10         0.3594   -0.1992   -2.2240 H         1 MOL         0.0428 
     20 H11         1.2904    1.2624   -1.9324 H         1 MOL         0.0428 
     21 H12        -1.6670    0.0045    0.0244 H         1 MOL         0.0565 
     22 H13        -1.5179   -2.2188   -0.0799 H         1 MOL         0.4059 
     23 H14        -0.2283    2.1000   -0.0095 H         1 MOL         0.4214 
@<TRIPOS>BOND
     1    1    5 1    
     2    1   10 1    
     3    1   11 1    
     4    1   12 1    
     5    2    6 1    
     6    2   13 1    
     7    2   14 1    
     8    2   15 1    
     9    3    9 1    
    10    3   16 1    
    11    3   17 1    
    12    3   18 1    
    13    4    6 1    
    14    4    9 1    
    15    4   19 1    
    16    4   20 1    
    17    5    6 1    
    18    5    7 1    
    19    5   21 1    
    20    6    8 1    
    21    7   22 1    
    22    8   23 1    
@<TRIPOS>SUBSTRUCTURE
     1 MOL         1 GROUP             0       ****    0 ROOT    
