@<TRIPOS>MOLECULE
AlkEthOH_c42
20   19    1
SMALL
USER_CHARGES


@<TRIPOS>ATOM
      1 C1         -0.9868    2.5101    0.8097 C.3       1 MOL        -0.1225 
      2 C2         -0.6061   -2.1836   -1.3123 C.3       1 MOL        -0.1225 
      3 C3         -0.0875    1.2980    0.5092 C.3       1 MOL         0.1284 
      4 C4          0.0560   -1.1429   -0.3944 C.3       1 MOL         0.1284 
      5 C5         -0.8522    0.0937   -0.1143 C.3       1 MOL         0.1575 
      6 O1          0.9220    1.7593   -0.3729 O.3       1 MOL        -0.6177 
      7 O2          0.4057   -1.8062    0.8161 O.3       1 MOL        -0.6177 
      8 O3         -1.8933   -0.3296    0.7553 O.3       1 MOL        -0.6099 
      9 H1         -1.4711    2.8806   -0.0948 H         1 MOL         0.0493 
     10 H2         -0.4224    3.3328    1.2493 H         1 MOL         0.0493 
     11 H3         -1.7748    2.2477    1.5161 H         1 MOL         0.0493 
     12 H4         -1.5176   -2.5868   -0.8688 H         1 MOL         0.0493 
     13 H5          0.0619   -3.0196   -1.5212 H         1 MOL         0.0493 
     14 H6         -0.8785   -1.7393   -2.2701 H         1 MOL         0.0493 
     15 H7          0.3887    0.9762    1.4376 H         1 MOL         0.0417 
     16 H8          0.9749   -0.8093   -0.8800 H         1 MOL         0.0417 
     17 H9         -1.2991    0.4284   -1.0526 H         1 MOL         0.0577 
     18 H10         1.3769    2.4957    0.0437 H         1 MOL         0.4064 
     19 H11         1.0466   -2.4928    0.6098 H         1 MOL         0.4064 
     20 H12        -1.4702   -0.9865    1.3244 H         1 MOL         0.4262 
@<TRIPOS>BOND
     1    1    3 1    
     2    1    9 1    
     3    1   10 1    
     4    1   11 1    
     5    2    4 1    
     6    2   12 1    
     7    2   13 1    
     8    2   14 1    
     9    3    5 1    
    10    3    6 1    
    11    3   15 1    
    12    4    5 1    
    13    4    7 1    
    14    4   16 1    
    15    5    8 1    
    16    5   17 1    
    17    6   18 1    
    18    7   19 1    
    19    8   20 1    
@<TRIPOS>SUBSTRUCTURE
     1 MOL         1 GROUP             0       ****    0 ROOT    
