@<TRIPOS>MOLECULE
AlkEthOH_c80
23   22    1
SMALL
USER_CHARGES


@<TRIPOS>ATOM
      1 C1         -0.8380   -0.7555    1.8567 C.3       1 MOL        -0.1255 
      2 C2          1.8296   -0.2789    0.2317 C.3       1 MOL        -0.1163 
      3 C3         -0.9397    1.8172   -3.2660 C.3       1 MOL         0.1167 
      4 C4          0.4010    0.7273   -1.6230 C.3       1 MOL         0.1294 
      5 C5         -0.7548   -0.4750    0.3438 C.3       1 MOL         0.1142 
      6 C6          0.4767    0.3802   -0.1128 C.3       1 MOL         0.1651 
      7 O1         -0.7827   -1.7346   -0.3100 O.3       1 MOL        -0.6174 
      8 O2          0.4633    1.6273    0.5614 O.3       1 MOL        -0.6052 
      9 O3         -0.7515    1.5332   -1.8869 O.3       1 MOL        -0.4245 
     10 H1         -0.0081   -1.3724    2.2022 H         1 MOL         0.0462 
     11 H2         -1.7620   -1.2728    2.1157 H         1 MOL         0.0462 
     12 H3         -0.8177    0.1716    2.4302 H         1 MOL         0.0462 
     13 H4          1.9457   -0.4269    1.3051 H         1 MOL         0.0509 
     14 H5          2.6700    0.3327   -0.0984 H         1 MOL         0.0509 
     15 H6          1.9255   -1.2538   -0.2467 H         1 MOL         0.0509 
     16 H7         -1.8310    2.4317   -3.3936 H         1 MOL         0.0344 
     17 H8         -1.0809    0.9035   -3.8457 H         1 MOL         0.0344 
     18 H9         -0.0935    2.3678   -3.6802 H         1 MOL         0.0344 
     19 H10         0.3705   -0.1922   -2.2117 H         1 MOL         0.0428 
     20 H11         1.2982    1.2688   -1.9311 H         1 MOL         0.0428 
     21 H12        -1.6644    0.0567    0.0564 H         1 MOL         0.0565 
     22 H13        -1.5547   -2.2185   -0.0063 H         1 MOL         0.4059 
     23 H14        -0.2010    2.1575    0.1052 H         1 MOL         0.4214 
@<TRIPOS>BOND
     1    1    5 1    
     2    1   10 1    
     3    1   11 1    
     4    1   12 1    
     5    2    6 1    
     6    2   13 1    
     7    2   14 1    
     8    2   15 1    
     9    3    9 1    
    10    3   16 1    
    11    3   17 1    
    12    3   18 1    
    13    4    6 1    
    14    4    9 1    
    15    4   19 1    
    16    4   20 1    
    17    5    6 1    
    18    5    7 1    
    19    5   21 1    
    20    6    8 1    
    21    7   22 1    
    22    8   23 1    
@<TRIPOS>SUBSTRUCTURE
     1 MOL         1 GROUP             0       ****    0 ROOT    
